test/data/gc_12_47_1_pared_down_no_regulator/node.glm
// $Id: GC-12.47-1.glm 
// 12.47 kV feeder 
//********************************************* 
clock{ 
     timezone EST+5EDT; 
     timestamp '2000-01-01 0:00:00'; 
     stoptime '2000-01-01 0:00:01'; 

} 

#set profiler=1 
//********************************************* 
// modules 
module tape; 
module powerflow{ 
     solver_method NR; 
     // default_maximum_voltage_error 1e-6;
}; 

// object voltdump {
//     filename voltage.csv;
//      mode RECT;
// }

//********************************************* 



object transformer:74 { 
     name GC-12-47-1_xfmr_0; 
     from GC-12-47-1_node_28; 
     to GC-12-47-1_meter_4; 
     phases ABCN; 
     configuration transformer_configuration:43; 
}  

object transformer_configuration:43 { 
     connect_type WYE_WYE; 
     install_type PADMOUNT; 
     primary_voltage 12470.000 V; 
     secondary_voltage 12470.000 V; 
     power_rating 3000.0; 
     powerA_rating 1000.0; 
     powerB_rating 1000.0; 
     powerC_rating 1000.0; 
     resistance 0.00003; 
     reactance 0.00017; 
     //  shunt_impedance 6545.460+6655.949j;
} 

object line_configuration:6 { 
     conductor_A underground_line_conductor:2; 
     conductor_B underground_line_conductor:2; 
     conductor_C underground_line_conductor:2; 
     conductor_N underground_line_conductor:2; 
     spacing line_spacing:5; 
} 

object line_configuration:7 { 
     conductor_A underground_line_conductor:3; 
     conductor_B underground_line_conductor:3; 
     conductor_C underground_line_conductor:3; 
     conductor_N underground_line_conductor:3; 
     spacing line_spacing:5; 
} 

object line_spacing:5 { 
     distance_AB 3.0 in; 
     distance_BC 3.0 in; 
     distance_AC 3.0 in; 
     distance_AN 2.0 in; 
     distance_BN 2.0 in; 
     distance_CN 2.0 in; 
} 


object load:37 { 
     name GC-12-47-1_load_2; 
     parent GC-12-47-1_meter_2; 
     phases ABCN; 
     voltage_A 7200+0.0j; 
     voltage_B -3600-6235j; 
     voltage_C -3600+6235j; 
     constant_power_A 585277.7504+357997.618j; 
     constant_power_B 596917.157+361239.5414j; 
     constant_power_C 592476.6189+358995.6939j; 
     nominal_voltage 480; 
     // load_class I; 
} 

object meter:40 { 
     name GC-12-47-1_meter_2; 
     phases ABCN; 
     nominal_voltage 480; 
} 


object meter:73 { 
     name GC-12-47-1_meter_4; 
     phases ABCN; 
     nominal_voltage 7200; 
} 

object node:17 { 
     name GC-12-47-1_node_9; 
     phases ABCN; 
     voltage_A 7200+0.0j; 
     voltage_B -3600-6235j; 
     voltage_C -3600+6235j; 
     nominal_voltage 7200; 
} 

object node:29 { 
     name GC-12-47-1_node_21; 
     phases ABCN; 
     voltage_A 7200+0.0j; 
     voltage_B -3600-6235j; 
     voltage_C -3600+6235j; 
     nominal_voltage 7200; 
} 

object node:35 { 
     name GC-12-47-1_node_27; 
     parent GC-12-47-1_meter_4; 
     phases ABCN; 
     voltage_A 7200+0.0j; 
     voltage_B -3600-6235j; 
     voltage_C -3600+6235j; 
     nominal_voltage 7200; 
} 

object node:76 { 
     name GC-12-47-1_node_28; 
     phases ABCN; 
     bustype SWING; 
     nominal_voltage 7200; 
     voltage_A 7200+0.0j; 
     voltage_B -3600-6235j; 
     voltage_C -3600+6235j; 
} 

object transformer:44 { 
     name GC-12-47-1_xfmr_2; 
     phases ABCN; 
     from GC-12-47-1_node_9; 
     to GC-12-47-1_meter_2; 
     configuration transformer_configuration:42; 
} 


object transformer_configuration:42 { 
     connect_type WYE_WYE; 
     install_type PADMOUNT; 
     primary_voltage 12470.000 V; 
     secondary_voltage 480 V; 
     power_rating 3000.0; 
     powerA_rating 1000.0; 
     powerB_rating 1000.0; 
     powerC_rating 1000.0; 
     resistance 0.00003; 
     reactance 0.00017; 
     //  shunt_impedance 6545.460+6655.949j;
} 

object underground_line:48 { 
     name GC-12-47-1_ul_3; 
     phases ABCN; 
     from GC-12-47-1_node_27; 
     to GC-12-47-1_node_21; 
     length 494.713; 
     configuration line_configuration:6; 
} 

object underground_line:52 { 
     name GC-12-47-1_ul_7; 
     phases ABCN; 
     from GC-12-47-1_node_21; 
     to GC-12-47-1_node_9; 
     length 101.838; 
     configuration line_configuration:7; 
} 

object underground_line_conductor:2 { 
     // rating.summer.continuous 488.0; 
     outer_diameter 2.15; 
     conductor_gmr 0.0371 ft; 
     conductor_diameter 1.152; 
     conductor_resistance 0.091872; 
     neutral_gmr 0.0842565914341201 ft; 
     neutral_resistance 5.3856; 
     neutral_diameter 0.1019; 
     neutral_strands 20.0; 
     // shield_gmr 0.00; 
     // shield_resistance 0.00; 
} 

object underground_line_conductor:3 { 
     // rating.summer.continuous 112.0; 
     outer_diameter 1.09; 
     conductor_gmr 0.0088 ft; 
     conductor_diameter 0.292; 
     conductor_resistance 1.38336; 
     neutral_gmr 0.0348162687755351 ft; 
     neutral_resistance 13.5696; 
     neutral_diameter 0.0641; 
     neutral_strands 6.0; 
     // shield_gmr 0.00; 
     // shield_resistance 0.00; 
}



object voltdump {
     filename result.csv;
     mode RECT;
}
